data30.m
%        BARIGYE OSBERT  POWER  PROJECT

 %In the given data the injected MVAR of the shunt capacitors is not given
 %so I considered it to be  0 and added that column manually 

 %CHANGES MADE FOR MY  EASY DATA ANALYZATION and Writing  -BARIGYE OSBERT
 %Bus code means the bus type 1-slackBus type 2-PV bus  type 3-load buses
 %I changed my bus data to MV and MVAR because its easier for me to analyze
 %I also made sure i use  half the total line suspentance in p.u in the line data 


%for easy analyzing of bus 3 using this line of code was so complex  "if kb(n) ~= 1 & kb(n) ~= 2 & kb(n) ~= 3" i just named  bus 3 "0" to reduce the complexity

%        Bus Bus  Voltage Angle   ---Load---- -------Generator----- Static Mvar
%        Bus Bus  Voltage Angle   ---Load---- -------Generator----- Static Mvar
%        No  code Mag(pu) Degree    PL      QL       MW         MV     QMIN      Qmax     +Qc/-Ql
busdata = [1   1    1.06    0.0     0.000   0.000    0.000    0.000    0.000     0       0
           2   2    1.043   0.0     0.217   0.127    0.400    0.500    -0.400    0.500   0
           3   0    1.000   0.0     0.024   0.012    0.000    0.000    0.000     0       0
           4   0    1.060   0.0     0.076   0.016    0.000    0.000    0.000     0       0
           5   2    1.010   0.0     0.942   0.190    0.000    0.370    -0.400    0.400   0
           6   0    1.000   0.0     0.000   0.000    0.000    0.000    0.000     0       0
           7   0    1.000   0.0     0.228   0.109    0.000    0.000    0.000     0       0
           8   2    1.010   0.0     0.300   0.300    0.000    0.373    -0.100    0.400   0
           9   0    1.000   0.0     0.000   0.000    0.000    0.000    0.000     0       0
           10  0    1.000   0.0     0.058   0.020    0.000    0.190    0.000     0       0
           12  0    1.000   0       0.112   0.075    0.000    0.000    -0.060    0.240   0
           11  2    1.082   0.0     0.000   0.000    0.000    0.162    0.000     0       0
           13  2    1.071   0       0       0.000    0.000    0.106    -0.060    0.240   0
           14  0    1.000   0       0.062   0.016    0.000    0.000    0.000     0       0
           15  0    1.000   0       0.082   0.025    0.000    0.000    0.000     0       0
           16  0    1.000   0       0.035   0.018    0.000    0.000    0         0       0
           17  0    1.000   0       0.090   0.058    0.000    0.000    0         0       0
           18  0    1.000   0       0.032   0.009    0.000    0.000    0         0       0
           19  0    1.000   0       0.095   0.034    0.000    0.000    0         0       0
           20  0    1.000   0       0.022   0.007    0.000    0.000    0         0       0
           21  0    1.000   0       0.175   0.112    0.000    0.000    0         0       0
           22  0    1.000   0       0       0.000    0.000    0.000    0         0       0
           23  0    1.000   0       0.032   0.016    0.000    0.000    0         0       0
           24  0    1.000   0       0.087   0.067    0.000    0.043    0         0       0
           25  0    1.000   0       0       0.000    0.000    0.000    0         0       0
           26  0    1.000   0       0.035   0.023    0.000    0.000    0         0       0
           27  0    1.000   0       0       0.000    0.000    0.000    0         0       0
           28  0    1.000   0       0       0.000    0.000    0.000    0         0       0
           29  0    1.000   0       0.024   0.009    0.000    0.000    0         0       0
           30  0    1.000   0       0.106   0.019    0.000    0.000    0         0       0];


%                                             Tap ratio
%         Bus bus    R         X     1/2 B   = 1 for lines
%         nl  nr    p.u.       p.u.  p.u.     tr. tap at bus nl
linedata=[1   2   0.0192   0.0575   0.02640    1
          1   3   0.0452   0.1652   0.02040    1
          2   4   0.0570   0.1737   0.01840    1
          3   4   0.0132   0.0379   0.00420    1
          2   5   0.0472   0.1983   0.02090    1
          2   6   0.0581   0.1763   0.01870    1
          4   6   0.0119   0.0414   0.00450    1
          5   7   0.0460   0.1160   0.01020    1
          6   7   0.0267   0.0820   0.00850    1
          6   8   0.0120   0.0420   0.00450    1
          6   9   0.0      0.2080   0.0        1
          6  10   0         .5560   0          1
          9  11   0         .2080   0          1
          9  10   0         .1100   0          1
          4  12   0         .2560   0          1
         12  13   0         .1400   0          1
         12  14    .1231    .2559   0          1
         12  15    .0662    .1304   0          1
         12  16    .0945    .1987   0          1
         14  15    .2210    .1997   0          1
         16  17    .0824    .1923   0          1
         15  18    .1073    .2185   0          1
         18  19    .0639    .1292   0          1
         19  20    .0340    .0680   0          1
         10  20    .0936    .2090   0          1
         10  17    .0324    .0845   0          1
         10  21    .0348    .0749   0          1
         10  22    .0727    .1499   0          1
         21  22    .0116    .0236   0          1
         15  23    .1000    .2020   0          1
         22  24    .1150    .1790   0          1
         23  24    .1320    .2700   0          1
         24  25    .1885    .3292   0          1
         25  26    .2544    .3800   0          1
         25  27    .1093    .2087   0          1
         28  27     0       .3960   0          1
         27  29    .2198    .4153   0          1
         27  30    .3202    .6027   0          1
         29  30    .2399    .4533   0          1
          8  28    .0636    .2000   0.0214     1
          6  28    .0169    .0599   0.065      1];

